*Heading
** Job name: vumat2 Model name: vumat2
** Generated by: Abaqus/CAE 6.14-2
*Preprint, echo=NO, model=NO, history=NO, contact=NO
**
** PARTS
**
*Part, name=brick
*Node
      1,  0.100000001,           0.,           0.
      2,  0.100000001,  0.100000001,           0.
      3,           0.,           0.,           0.
      4,           0., 0.0399999991,           0.
      5, 0.0299999993, 0.0500000007,           0.
      6,           0., 0.0599999987,           0.
      7,           0.,  0.100000001,           0.
      8,  0.100000001, 0.00999999978,           0.
      9,  0.100000001, 0.0199999996,           0.
     10,  0.100000001, 0.0299999993,           0.
     11,  0.100000001, 0.0399999991,           0.
     12,  0.100000001, 0.0500000007,           0.
     13,  0.100000001, 0.0599999987,           0.
     14,  0.100000001, 0.0700000003,           0.
     15,  0.100000001, 0.0799999982,           0.
     16,  0.100000001, 0.0900000036,           0.
     17, 0.0900000036,           0.,           0.
     18, 0.0799999982,           0.,           0.
     19, 0.0700000003,           0.,           0.
     20, 0.0599999987,           0.,           0.
** ... 230 like lines cut
*Element, type=C3D8
  1,  82,  84,  74,  89, 207, 209, 199, 214
  2,  69,  49,  42,  43, 194, 174, 167, 168
  3,  37,  63,  73,  36, 162, 188, 198, 161
  4,  20,  19,  75,  56, 145, 144, 200, 181
  5,  58,  45,  23,  22, 183, 170, 148, 147
  6,  51,  17,   1,   8, 176, 142, 126, 133
  7,  51, 114,  18,  17, 176, 239, 143, 142
  8,  52,  72,   9,  10, 177, 197, 134, 135
  9,  10,  11,  53,  52, 135, 136, 178, 177
 10,  54,  53,  11,  12, 179, 178, 136, 137
 11,  55,  54,  12,  13, 180, 179, 137, 138
 12,  13,  14,  76,  55, 138, 139, 201, 180
 13,  95, 125,  97, 108, 220, 250, 222, 233
 14,  56,  75,  97, 125, 181, 200, 222, 250
 15,  21,  20,  56,  57, 146, 145, 181, 182
 16,  46,  45,  83,  77, 171, 170, 208, 202
 17,  46,  77,  50,  70, 171, 202, 175, 195
 18,  24,  23,  45,  46, 149, 148, 170, 171
 19,   3,  25,  70,  28, 128, 150, 195, 153
 20,  26,  71,  30,   4, 151, 196, 155, 129
** ... 82 like lines cut
*Nset, nset=brick_set, generate
   1,  250,    1
*Elset, elset=brick_set, generate
   1,  102,    1
** Section: user_sec
*Solid Section, elset=brick_set, material=user_mat
,
*End Part
**  
**
** ASSEMBLY
**
*Assembly, name=Assembly
**  
*Instance, name=brick-1, part=brick
*End Instance
**  
*Nset, nset=bottom_set, instance=brick-1
   1,   3,  17,  18,  19,  20,  21,  22,  23,  24,  25, 126, 128, 142, 143, 144
 145, 146, 147, 148, 149, 150
*Elset, elset=bottom_set, instance=brick-1
  4,  5,  6,  7, 15, 18, 19, 34, 46, 61
*Nset, nset=top_set, instance=brick-1
   2,   7,  36,  37,  38,  39,  40,  41,  42,  43,  44, 127, 132, 161, 162, 163
 164, 165, 166, 167, 168, 169
*Elset, elset=top_set, instance=brick-1
  2,  3, 25, 27, 30, 31, 33, 37, 44, 48
*End Assembly
** 
** MATERIALS
** 
*Material, name=user_mat
*Density
2700.,
*Depvar
     18,
*User Material, constants=4
 7e+10,  0.27,   0.1, 1e+10
** ----------------------------------------------------------------
** 
** STEP: Step-1
** 
*Step, name=Step-1, nlgeom=YES
*Dynamic, Explicit
, 0.1
*Bulk Viscosity
0.06, 1.2
** 
** BOUNDARY CONDITIONS
** 
** Name: fix_bc Type: Displacement/Rotation
*Boundary
bottom_set, 1, 1
bottom_set, 2, 2
bottom_set, 3, 3
** Name: velocity_bc Type: Velocity/Angular velocity
*Boundary, type=VELOCITY
top_set, 2, 2, 0.2
** 
** OUTPUT REQUESTS
** 
*Restart, write, number interval=1, time marks=NO
** 
** FIELD OUTPUT: F-Output-1
** 
*Output, field
*Node Output
A, RF, U, V
*Element Output, directions=YES
EVF, LE, PE, PEEQ, PEEQVAVG, PEVAVG, S, SDV, STATUS, SVAVG
*Contact Output
CSTRESS, 
** 
** HISTORY OUTPUT: H-Output-1
** 
*Output, history, variable=PRESELECT
*End Step
